case30.m
function data=case30()

    data.baseMVA=100;   % Base MVA
    data.baseKV=100;    % Base Voltage in KV

    %           |Bus | Type  |  Vsp  | theta | PGi  |  QGi | PLi  |  QLi  |  Qmin  | Qmax

 data.bus=[1   1      1.05    0        0        0         0       0        0      0;
        2   2      1.0338  0        0.5756  -0.0056    0.217   0.127   -0.2  0.6;
        3   3      1.0     0        0        0         0.024   0.012    0    0;
        4   3      1.0     0        0        0         0.076   0.016    0    0;
        5   2      1.0058  0        0.2456   0.2120    0.942   0.19    -0.15 0.625;
        6   3      1.0     0        0        0.0       0.0     0.0      0    0;
        7   3      1.0     0        0        0         0.228   0.109    0    0;
        8   2      1.023   0        0.35     0.2678    0.3     0.3     -0.15 0.5;
        9   3      1.0     0        0        0         0.0     0.0      0    0;
        10  3      1.0     0        0        0         0.058   0.02     0    0;
        11  2      1.0913  0        0.1793   0.2410    0       0.0     -0.1  0.4;
        12  3      1.0     0        0        0         0.112   0.075    0    0;
        13  2      1.0883  0        0.1691   0.3169    0       0.0     -0.15 0.45;
        14  3      1.0     0        0        0         0.062   0.016    0    0;
        15  3      1.0     0        0        0         0.082   0.025    0    0;
        16  3      1.0     0        0        0         0.035   0.018    0    0;
        17  3      1.0     0        0        0         0.09    0.058    0    0;
        18  3      1.0     0        0        0         0.032   0.009    0    0;
        19  3      1.0     0        0        0         0.095   0.034    0    0;
        20  3      1.0     0        0        0         0.022   0.007    0    0;
        21  3      1.0     0        0        0         0.175   0.112    0    0;
        22  3      1.0     0        0        0         0.0     0.0      0    0;
        23  3      1.0     0        0        0         0.032   0.016    0    0;
        24  3      1.0     0        0        0         0.087   0.067    0    0;
        25  3      1.0     0        0        0         0.0     0.0      0    0;
        26  3      1.0     0        0        0         0.035   0.023    0    0;
        27  3      1.0     0        0        0         0.0     0.0      0    0;
        28  3      1.0     0        0        0         0.0     0.0      0    0;
        29  3      1.0     0        0        0         0.024   0.009    0    0;
        30  3      1.0     0        0        0         0.106   0.019    0    0];
    
    %            |From| TO  |   R   |    X    |    B/2    | X'mer |
    %            |Bus | Bus |   pu  |    pu   |    pu     | Tap(a)|
data.line =  [1   2    0.0192   0.0575    0.0264      1;
              1   3    0.0452   0.1852    0.0204      1;
              2   4    0.057    0.1737     0.0184      1;
              3   4    0.0132   0.0379    0.0042      1;
              2   5    0.0472   0.1983    0.0209      1;
              2   6    0.0581   0.1763    0.0187      1;
              4   6    0.0119   0.0414    0.0045      1;
              5   7    0.046    0.116      0.0102      1;
              6   7    0.0267   0.082     0.0085      1;
              6   8    0.012    0.042      0.0045      1;
              6   9    0        0.208      0           1.0155;
              6  10    0        0.556      0           0.9629;
              9  11    0        0.208      0           1;
              9  10    0        0.11       0           1;
              4  12    0        0.256      0           1.0129;
              12 13    0        0.14       0           1;
              12 14    0.1231   0.2559    0           1;
              12 15    0.0662   0.1304    0           1;
              12 16    0.0945   0.1987    0           1;
              14 15    0.221    0.1997    0           1;
              16 17    0.0824   0.1932    0           1;
              15 18    0.107    0.2185    0           1;
              18 19    0.0639   0.1292    0           1;
              19 20    0.034    0.068     0           1;
              10 20    0.0936   0.209     0           1;
              10 17    0.0324   0.0845    0           1;
              10 21    0.0348   0.0749    0           1;
              10 22    0.0727   0.1499    0           1;
              21 22    0.0116   0.0236    0           1;
              15 23    0.1      0.202     0           1;
              22 24    0.115    0.179     0           1;
              23 24    0.132    0.27      0           1;
              24 25    0.1885   0.3292    0           1;
              25 26    0.2544   0.38      0           1;
              25 27    0.1093   0.2087    0           1;
              28 27    0        0.396     0           0.9581;
              27 29    0.2198   0.4153    0           1;
              27 30    0.3202   0.6027    0           1;
              29 30    0.2399   0.4533    0           1;
              8  28    0.0636   0.2       0.0214      1;
              6  28    0.0169   0.0599    0.0065      1];
    %%-----  OPF Data  -----%%
    %% generator cost data
    %	1	startup	shutdown	n	x1	y1	...	xn	yn
    %	2	startup	shutdown	n	c(n-1)	...	c0
  %  data.gencost = [2     0     0    3    0.0430   20     0
  %                  2     0     0    3    0.2500   20     0
  %                  2     0     0    3    0.0100   40     0
  %                  2     0     0    3    0.0100   40     0
  %                  2     0     0    3    0.0100   40     0];
  %  data.genloc=[1 2 3 6 8];
end